tests/main/reference/hvdc_line_inverse/outputIIDM.xml
<?xml version="1.0" encoding="ISO-8859-1" standalone="no"?>
<network xmlns="http://www.itesla_project.eu/schema/iidm/1_0" xmlns:as="http://www.itesla_project.eu/schema/iidm/ext/active-season/1_0" xmlns:bbsp="http://www.itesla_project.eu/schema/iidm/ext/busbarsectionposition/1_0" xmlns:clps="http://www.itesla_project.eu/schema/iidm/ext/current-limits-per-season/1_0" xmlns:cp="http://www.itesla_project.eu/schema/iidm/ext/connectable_position/1_0" xmlns:gapc="http://www.itesla_project.eu/schema/iidm/ext/generator_active_power_control/1_0" xmlns:gec="http://www.itesla_project.eu/schema/iidm/ext/generator_entsoe_category/1_0" xmlns:gs="http://www.itesla_project.eu/schema/iidm/ext/generator_startup/1_0" xmlns:hapc="http://www.itesla_project.eu/schema/iidm/ext/hvdc_angle_droop_active_power_control/1_0" xmlns:hopr="http://www.itesla_project.eu/schema/iidm/ext/hvdc_operator_active_power_range/1_0" xmlns:ld="http://www.itesla_project.eu/schema/iidm/ext/load_detail/1_0" xmlns:sa="http://www.itesla_project.eu/schema/iidm/ext/standby_automaton/1_0" id="202002_DKE" caseDate="2020-02-10T00:00:00.000+01:00" forecastDistance="0" sourceFormat="NF">
  <substation id="FRSØ_" country="FR" tso="RTE">
    <property name="paysCvg" value="DANEMARK EST"/>
    <property name="regionCvg" value="DK2"/>
    <voltageLevel id="10.5_79309823-ffbf-4c5e-95c4-b3a71a88c4" nominalV="10.5" lowVoltageLimit="9.399998664855957" highVoltageLimit="11.600000381469727" topologyKind="BUS_BREAKER">
      <property name="rdfId" value="_79309823-ffbf-4c5e-95c4-b3a71a88c484"/>
      <busBreakerTopology>
        <bus id="10.5_79309823-ffbf-4c5e-95c4-b3a71a88c41" v="11.210297892440391" angle="-5.32610361160219"/>
      </busBreakerTopology>
      <generator id="791-0048/2" energySource="THERMAL" minP="0" maxP="11.600000381469727" voltageRegulatorOn="false" targetP="0" targetQ="0" targetV="11.332584381103516" connectableBus="10.5_79309823-ffbf-4c5e-95c4-b3a71a88c41" p="-0" q="-0">
        <property name="genreCvg" value="CHARBON"/>
        <property name="rdfId" value="_f772bd24-780e-4b3d-b403-05f3e8a9d163"/>
        <reactiveCapabilityCurve>
          <point p="0" minQ="-2.2999870777130127" maxQ="4.6999950408935547"/>
          <point p="11.600000381469727" minQ="-2.2999870777130127" maxQ="4.6999950408935547"/>
        </reactiveCapabilityCurve>
      </generator>
      <generator id="791-0048/1" energySource="THERMAL" minP="0" maxP="11.600000381469727" voltageRegulatorOn="false" targetP="0" targetQ="0" targetV="11.332584381103516" connectableBus="10.5_79309823-ffbf-4c5e-95c4-b3a71a88c41" p="-0" q="-0">
        <property name="genreCvg" value="CHARBON"/>
        <property name="rdfId" value="_b90e7bc9-54b3-42d2-a832-dd0c71695ad8"/>
        <reactiveCapabilityCurve>
          <point p="0" minQ="-2.2999870777130127" maxQ="4.6999950408935547"/>
          <point p="11.600000381469727" minQ="-2.2999870777130127" maxQ="4.6999950408935547"/>
        </reactiveCapabilityCurve>
      </generator>
      <generator id="791-0048_H" energySource="THERMAL" minP="-10" maxP="0" voltageRegulatorOn="false" targetP="0" targetQ="0" targetV="11.332584381103516" bus="10.5_79309823-ffbf-4c5e-95c4-b3a71a88c41" connectableBus="10.5_79309823-ffbf-4c5e-95c4-b3a71a88c41" p="0" q="-0">
        <property name="genreCvg" value="CHARBON"/>
        <property name="rdfId" value="_ac3527bb-53de-4d03-b199-1f6c5ada30f9"/>
        <reactiveCapabilityCurve>
          <point p="-10" minQ="0" maxQ="0"/>
          <point p="0" minQ="0" maxQ="0"/>
        </reactiveCapabilityCurve>
      </generator>
    </voltageLevel>
    <voltageLevel id="50_0ec6ffa2-2ba6-42c3-a031-f2c304c23bc9" nominalV="50" lowVoltageLimit="45" highVoltageLimit="54" topologyKind="BUS_BREAKER">
      <property name="rdfId" value="_0ec6ffa2-2ba6-42c3-a031-f2c304c23bc9"/>
      <busBreakerTopology>
        <bus id="50_0ec6ffa2-2ba6-42c3-a031-f2c304c23bc91" v="50.955899511092696" angle="-5.3261036116021909"/>
      </busBreakerTopology>
      <generator id="G_PQ_85c7e18d-638" energySource="THERMAL" minP="0" maxP="6.7579998970031738" voltageRegulatorOn="false" targetP="0" targetQ="0" targetV="51.512519836425781" connectableBus="50_0ec6ffa2-2ba6-42c3-a031-f2c304c23bc91" p="-0" q="-0">
        <property name="genreCvg" value="CHARBON"/>
        <property name="rdfId" value="_a29517bc-d0dd-46ef-a39f-eb74f9ec1f09"/>
        <reactiveCapabilityCurve>
          <point p="0" minQ="-0.99489998817443848" maxQ="3.9795999526977539"/>
          <point p="6.7579998970031738" minQ="-0.99489998817443848" maxQ="3.9795999526977539"/>
        </reactiveCapabilityCurve>
      </generator>
      <load id="G_FORBRUG.1" loadType="UNDEFINED" p0="33.634365081787109" q0="8.3213596343994141" bus="50_0ec6ffa2-2ba6-42c3-a031-f2c304c23bc91" connectableBus="50_0ec6ffa2-2ba6-42c3-a031-f2c304c23bc91" p="33.634365081787109" q="8.3213596343994141">
        <property name="rdfId" value="_0404056a-977f-43fe-aaca-eeb181f0e4fb"/>
      </load>
    </voltageLevel>
    <twoWindingsTransformer id="KT1_5d95c41d-895a-4f" r="0.023703750222921371" x="0.6923479437828064" g="7.2108850872609764e-05" b="-2.0498866433626972e-05" ratedU1="50" ratedU2="11" voltageLevelId1="50_0ec6ffa2-2ba6-42c3-a031-f2c304c23bc9" bus1="50_0ec6ffa2-2ba6-42c3-a031-f2c304c23bc91" connectableBus1="50_0ec6ffa2-2ba6-42c3-a031-f2c304c23bc91" voltageLevelId2="10.5_79309823-ffbf-4c5e-95c4-b3a71a88c4" bus2="10.5_79309823-ffbf-4c5e-95c4-b3a71a88c41" connectableBus2="10.5_79309823-ffbf-4c5e-95c4-b3a71a88c41" p1="0.0090619754502166243" q1="0.0025761085100157021" p2="2.0565531155192433e-15" q2="-9.8642666174307608e-15">
      <property name="rdfId" value="_5d95c41d-895a-4f76-bbfc-1ed435a9efbe"/>
      <ratioTapChanger lowTapPosition="0" tapPosition="0" loadTapChangingCapabilities="true" regulating="false">
        <terminalRef id="KT1_5d95c41d-895a-4f" side="ONE"/>
        <step r="0" x="0" g="0" b="0" rho="1"/>
      </ratioTapChanger>
    </twoWindingsTransformer>
    <twoWindingsTransformer id="KT2_9a7d713f-b600-4a" r="0.023703750222921371" x="0.6923479437828064" g="7.2108850872609764e-05" b="-2.0498866433626972e-05" ratedU1="50" ratedU2="11" voltageLevelId1="50_0ec6ffa2-2ba6-42c3-a031-f2c304c23bc9" bus1="50_0ec6ffa2-2ba6-42c3-a031-f2c304c23bc91" connectableBus1="50_0ec6ffa2-2ba6-42c3-a031-f2c304c23bc91" voltageLevelId2="10.5_79309823-ffbf-4c5e-95c4-b3a71a88c4" bus2="10.5_79309823-ffbf-4c5e-95c4-b3a71a88c41" connectableBus2="10.5_79309823-ffbf-4c5e-95c4-b3a71a88c41" p1="0.0090619754502166243" q1="0.0025761085100157021" p2="2.0565531155192433e-15" q2="-9.8642666174307608e-15">
      <property name="rdfId" value="_9a7d713f-b600-4a9b-bedb-9fdde5054f1a"/>
      <ratioTapChanger lowTapPosition="0" tapPosition="0" loadTapChangingCapabilities="true" regulating="false">
        <terminalRef id="KT2_9a7d713f-b600-4a" side="ONE"/>
        <step r="0" x="0" g="0" b="0" rho="1"/>
      </ratioTapChanger>
    </twoWindingsTransformer>
    <twoWindingsTransformer id="KT4_a5629663-09cf-45" r="0.023703750222921371" x="0.6923479437828064" g="7.2108850872609764e-05" b="-2.0498866433626972e-05" ratedU1="50" ratedU2="11" voltageLevelId1="50_0ec6ffa2-2ba6-42c3-a031-f2c304c23bc9" bus1="50_0ec6ffa2-2ba6-42c3-a031-f2c304c23bc91" connectableBus1="50_0ec6ffa2-2ba6-42c3-a031-f2c304c23bc91" voltageLevelId2="10.5_79309823-ffbf-4c5e-95c4-b3a71a88c4" bus2="10.5_79309823-ffbf-4c5e-95c4-b3a71a88c41" connectableBus2="10.5_79309823-ffbf-4c5e-95c4-b3a71a88c41" p1="0.0090619754502166243" q1="0.0025761085100157021" p2="2.0565531155192433e-15" q2="-9.8642666174307608e-15">
      <property name="rdfId" value="_a5629663-09cf-45e5-b1a9-59c5a2367b5a"/>
      <ratioTapChanger lowTapPosition="0" tapPosition="0" loadTapChangingCapabilities="true" regulating="false">
        <terminalRef id="KT4_a5629663-09cf-45" side="ONE"/>
        <step r="0" x="0" g="0" b="0" rho="1"/>
      </ratioTapChanger>
    </twoWindingsTransformer>
  </substation>
  <substation id="HKV_A" country="FR" tso="RTE">
    <property name="paysCvg" value="DANEMARK EST"/>
    <property name="regionCvg" value="DK2"/>
    <voltageLevel id="10_20db65d1-14dc-486e-b624-9d99e76e8605" nominalV="10" lowVoltageLimit="8" highVoltageLimit="12" topologyKind="BUS_BREAKER">
      <property name="rdfId" value="_20db65d1-14dc-486e-b624-9d99e76e8605"/>
      <busBreakerTopology>
        <bus id="10_20db65d1-14dc-486e-b624-9d99e76e86051" v="10.095080834536292" angle="-5.5922337022443607"/>
      </busBreakerTopology>
      <load id="MT1-2_1436ab31-4d" loadType="UNDEFINED" p0="0" q0="0" bus="10_20db65d1-14dc-486e-b624-9d99e76e86051" connectableBus="10_20db65d1-14dc-486e-b624-9d99e76e86051" p="0" q="0">
        <property name="rdfId" value="_1436ab31-4d12-455d-90c6-19d12d72c29a"/>
      </load>
    </voltageLevel>
    <voltageLevel id="50_62bc3dc3-d6d9-409b-bb1e-76635a1f4bfc" nominalV="50" lowVoltageLimit="45" highVoltageLimit="54" topologyKind="BUS_BREAKER">
      <property name="rdfId" value="_62bc3dc3-d6d9-409b-bb1e-76635a1f4bfc"/>
      <busBreakerTopology>
        <bus id="50_62bc3dc3-d6d9-409b-bb1e-76635a1f4bfc1" v="51.917694272294767" angle="-5.5918865525635235"/>
      </busBreakerTopology>
      <load id="G_MSK2" loadType="UNDEFINED" p0="0" q0="0" bus="50_62bc3dc3-d6d9-409b-bb1e-76635a1f4bfc1" connectableBus="50_62bc3dc3-d6d9-409b-bb1e-76635a1f4bfc1" p="0" q="0">
        <property name="rdfId" value="_bf2ae04f-ccc9-47ac-aba6-fe0782ca5dd1"/>
      </load>
    </voltageLevel>
    <voltageLevel id="6_e0eebc20-4667-4049-bbe2-92d68386c865" nominalV="6" lowVoltageLimit="5.4000000953674316" highVoltageLimit="6.5999994277954102" topologyKind="BUS_BREAKER">
      <property name="rdfId" value="_e0eebc20-4667-4049-bbe2-92d68386c865"/>
      <busBreakerTopology>
        <bus id="6_e0eebc20-4667-4049-bbe2-92d68386c8651" v="6.3454792900188171" angle="-5.5922337022443624"/>
      </busBreakerTopology>
      <generator id="HKVDT_GEN" energySource="THERMAL" minP="0" maxP="76" voltageRegulatorOn="false" targetP="0" targetQ="0" targetV="6" connectableBus="6_e0eebc20-4667-4049-bbe2-92d68386c8651" p="-0" q="-0">
        <property name="genreCvg" value="CHARBON"/>
        <property name="rdfId" value="_d8c86f7b-8a14-45e2-9ba8-b23cbd8ef193"/>
        <reactiveCapabilityCurve>
          <point p="0" minQ="-8.5000200271606445" maxQ="20.5"/>
          <point p="76" minQ="-8.5000200271606445" maxQ="20.5"/>
        </reactiveCapabilityCurve>
      </generator>
    </voltageLevel>
    <voltageLevel id="MT1" nominalV="50" topologyKind="BUS_BREAKER">
      <property name="rdfId" value="PT_13fc908c-673d-4fdb-a2e2-f1960a1180d2"/>
      <property name="siteInit" value="undefined"/>
      <busBreakerTopology>
        <bus id="MT11" v="51.91755857761521" angle="-5.5922337022443616"/>
      </busBreakerTopology>
    </voltageLevel>
    <twoWindingsTransformer id="MT1.1_176ace9c-7f3d-" r="0.021739251911640167" x="0.67796850204467773" g="4.5652000153495464e-06" b="-1.7980000848183408e-06" ratedU1="54" ratedU2="54" voltageLevelId1="50_62bc3dc3-d6d9-409b-bb1e-76635a1f4bfc" bus1="50_62bc3dc3-d6d9-409b-bb1e-76635a1f4bfc1" connectableBus1="50_62bc3dc3-d6d9-409b-bb1e-76635a1f4bfc1" voltageLevelId2="MT1" bus2="MT11" connectableBus2="MT11" p1="0.036702122366189381" q1="0.014455466070980541" p2="-0.024396862233124206" q2="-0.0096088792415788479">
      <property name="rdfId" value="_176ace9c-7f3d-4cc8-a463-23da40175dbc"/>
      <ratioTapChanger lowTapPosition="0" tapPosition="0" loadTapChangingCapabilities="true" regulating="false">
        <terminalRef id="MT1.1_176ace9c-7f3d-" side="ONE"/>
        <step r="0" x="0" g="0" b="0" rho="1"/>
      </ratioTapChanger>
    </twoWindingsTransformer>
    <twoWindingsTransformer id="MT1.2_54f1b0b9-8307-" r="0.00086957000894472003" x="0.10385885089635849" g="0.00011413299944251776" b="-4.4952103053219616e-05" ratedU1="54" ratedU2="10.5" voltageLevelId1="MT1" bus1="MT11" connectableBus1="MT11" voltageLevelId2="10_20db65d1-14dc-486e-b624-9d99e76e8605" bus2="10_20db65d1-14dc-486e-b624-9d99e76e86051" connectableBus2="10_20db65d1-14dc-486e-b624-9d99e76e86051" p1="0.011631368964937976" q1="0.0045810983581923807" p2="1.0433108356415689e-14" q2="2.2156683318412952e-13">
      <property name="rdfId" value="_54f1b0b9-8307-43ed-ac20-53c39c6349e6"/>
      <ratioTapChanger lowTapPosition="0" tapPosition="0" loadTapChangingCapabilities="true" regulating="false">
        <terminalRef id="MT1.2_54f1b0b9-8307-" side="ONE"/>
        <step r="0" x="0" g="0" b="0" rho="1"/>
      </ratioTapChanger>
    </twoWindingsTransformer>
    <twoWindingsTransformer id="MT1.3_ffacc30f-d409-" r="-0.00011739240289898589" x="0.017784388735890388" g="0.00031703611603006721" b="-0.00012486694322433323" ratedU1="54" ratedU2="6.5999999046325684" voltageLevelId1="MT1" bus1="MT11" connectableBus1="MT11" voltageLevelId2="6_e0eebc20-4667-4049-bbe2-92d68386c865" bus2="6_e0eebc20-4667-4049-bbe2-92d68386c8651" connectableBus2="6_e0eebc20-4667-4049-bbe2-92d68386c8651" p1="0.012765493268016235" q1="0.0050277808817686225" p2="7.5087154999407272e-16" q2="7.6686835889594269e-15">
      <property name="rdfId" value="_ffacc30f-d409-493f-a81b-9adbaa244ecb"/>
      <ratioTapChanger lowTapPosition="0" tapPosition="0" loadTapChangingCapabilities="true" regulating="false">
        <terminalRef id="MT1.3_ffacc30f-d409-" side="ONE"/>
        <step r="0" x="0" g="0" b="0" rho="1"/>
      </ratioTapChanger>
    </twoWindingsTransformer>
  </substation>
  <substation id="SMV_9" country="FR" tso="RTE">
    <property name="paysCvg" value="DANEMARK EST"/>
    <property name="regionCvg" value="DK2"/>
    <voltageLevel id="10_2dd58fe9-dfda-41e8-8163-5e7e688a9765" nominalV="10" lowVoltageLimit="8" highVoltageLimit="12" topologyKind="BUS_BREAKER">
      <property name="rdfId" value="_2dd58fe9-dfda-41e8-8163-5e7e688a9765"/>
      <busBreakerTopology>
        <bus id="10_2dd58fe9-dfda-41e8-8163-5e7e688a97651" v="10.23092615296552" angle="-6.2498821447730801"/>
      </busBreakerTopology>
      <generator id="SMV7_d8f48c28-904" energySource="THERMAL" minP="0" maxP="59.200000762939453" voltageRegulatorOn="true" targetP="0" targetQ="0" targetV="10" connectableBus="10_2dd58fe9-dfda-41e8-8163-5e7e688a97651" p="-0" q="-0">
        <property name="genreCvg" value="CHARBON"/>
        <property name="rdfId" value="_4c70c6bf-06e3-4aa8-8f36-ad114835544e"/>
        <reactiveCapabilityCurve>
          <point p="0" minQ="-25.000200271606445" maxQ="42.999698638916016"/>
          <point p="59.200000762939453" minQ="-25.000200271606445" maxQ="42.999698638916016"/>
        </reactiveCapabilityCurve>
      </generator>
    </voltageLevel>
    <voltageLevel id="30_59e3716a-4e02-4da1-a112-1c2b6f6c9d53" nominalV="30" lowVoltageLimit="27.000001907348633" highVoltageLimit="36" topologyKind="BUS_BREAKER">
      <property name="rdfId" value="_59e3716a-4e02-4da1-a112-1c2b6f6c9d53"/>
      <busBreakerTopology>
        <bus id="30_59e3716a-4e02-4da1-a112-1c2b6f6c9d531" v="31.862027905480929" angle="-6.2498821447730801"/>
      </busBreakerTopology>
      <generator id="H_PV_a793beb5-4f4" energySource="OTHER" minP="0" maxP="2.6389000415802002" voltageRegulatorOn="false" targetP="0.22419999539852142" targetQ="0" targetV="31.001333236694336" bus="30_59e3716a-4e02-4da1-a112-1c2b6f6c9d531" connectableBus="30_59e3716a-4e02-4da1-a112-1c2b6f6c9d531" p="-0.22419999539852148" q="5.4210108624275222e-18">
        <property name="genreCvg" value="AUTRE"/>
        <property name="rdfId" value="_b5c63a0a-713a-4693-9f10-b131360dc9af"/>
        <reactiveCapabilityCurve>
          <point p="0" minQ="0" maxQ="0"/>
          <point p="2.6389000415802002" minQ="0" maxQ="0"/>
        </reactiveCapabilityCurve>
      </generator>
      <load id="H_FORBRUG.0" loadType="UNDEFINED" p0="86.222312927246094" q0="21.331960678100586" bus="30_59e3716a-4e02-4da1-a112-1c2b6f6c9d531" connectableBus="30_59e3716a-4e02-4da1-a112-1c2b6f6c9d531" p="86.222312927246094" q="21.331960678100586">
        <property name="rdfId" value="_363736f5-5df7-4d1c-aca7-e202f279e86e"/>
      </load>
    </voltageLevel>
    <twoWindingsTransformer id="MT7_dc63f05d-5172-47" r="0.0024999999441206455" x="0.14445099234580994" g="0.00020408000273164362" b="-0.00014119000115897506" ratedU1="32.700000762939453" ratedU2="10.5" voltageLevelId1="30_59e3716a-4e02-4da1-a112-1c2b6f6c9d53" bus1="30_59e3716a-4e02-4da1-a112-1c2b6f6c9d531" connectableBus1="30_59e3716a-4e02-4da1-a112-1c2b6f6c9d531" voltageLevelId2="10_2dd58fe9-dfda-41e8-8163-5e7e688a9765" bus2="10_2dd58fe9-dfda-41e8-8163-5e7e688a97651" connectableBus2="10_2dd58fe9-dfda-41e8-8163-5e7e688a97651" p1="0.021361431423206789" q1="0.01477861861549163" p2="5.7963427681075228e-15" q2="5.2927034001758061e-14">
      <property name="rdfId" value="_dc63f05d-5172-476c-9cdd-ebf2825ecb23"/>
      <ratioTapChanger lowTapPosition="0" tapPosition="0" loadTapChangingCapabilities="true" regulating="false">
        <terminalRef id="MT7_dc63f05d-5172-47" side="ONE"/>
        <step r="0" x="0" g="0" b="0" rho="1"/>
      </ratioTapChanger>
    </twoWindingsTransformer>
  </substation>
  <substation id="ISH_8" country="FR" tso="RTE">
    <property name="paysCvg" value="DANEMARK EST"/>
    <property name="regionCvg" value="DK2"/>
    <voltageLevel id="10_36d15df6-f915-48fc-aca0-9f1b66c272b8" nominalV="10" lowVoltageLimit="8" highVoltageLimit="12" topologyKind="BUS_BREAKER">
      <property name="rdfId" value="_36d15df6-f915-48fc-aca0-9f1b66c272b8"/>
      <busBreakerTopology>
        <bus id="10_36d15df6-f915-48fc-aca0-9f1b66c272b81" v="10.355518575281495" angle="-0.010124266432461325"/>
      </busBreakerTopology>
    </voltageLevel>
    <voltageLevel id="132_9c4e306f-3ca4-4840-9010-1172c55c3ad" nominalV="132" lowVoltageLimit="124" highVoltageLimit="145" topologyKind="BUS_BREAKER">
      <property name="rdfId" value="_9c4e306f-3ca4-4840-9010-1172c55c3ad3"/>
      <busBreakerTopology>
        <bus id="132_9c4e306f-3ca4-4840-9010-1172c55c3ad1" v="140.00704024692473" angle="-1.6730774333760456"/>
      </busBreakerTopology>
      <shunt id="KON_389457d7-97d3" bPerSection="0.0052509992383420467" maximumSectionCount="1" currentSectionCount="1" bus="132_9c4e306f-3ca4-4840-9010-1172c55c3ad1" connectableBus="132_9c4e306f-3ca4-4840-9010-1172c55c3ad1" q="-102.92993646451738">
        <property name="qMax" value="91.4934"/>
        <property name="rdfId" value="_389457d7-97d3-4df5-8d4b-11de468b4e56"/>
      </shunt>
      <shunt id="R11_7129b71d-3902" bPerSection="1.1754943508222875e-38" maximumSectionCount="1" currentSectionCount="0" connectableBus="132_9c4e306f-3ca4-4840-9010-1172c55c3ad1" q="-0">
        <property name="qMax" value="-50.01"/>
        <property name="rdfId" value="_7129b71d-3902-4fa1-bd97-488f2a254c12"/>
      </shunt>
    </voltageLevel>
    <voltageLevel id="232_0c60641e-46c3-4a7b-bc24-d88673a01d7" nominalV="232" lowVoltageLimit="210" highVoltageLimit="244.99998474121094" topologyKind="BUS_BREAKER">
      <property name="rdfId" value="_0c60641e-46c3-4a7b-bc24-d88673a01d74"/>
      <busBreakerTopology>
        <bus id="232_0c60641e-46c3-4a7b-bc24-d88673a01d71" v="245.54770769367798" angle="-0.0094910448536909883"/>
      </busBreakerTopology>
    </voltageLevel>
    <voltageLevel id="400_79307cc6-6a4b-4a94-af31-b6f92d976b3" nominalV="400" lowVoltageLimit="360" highVoltageLimit="420" topologyKind="BUS_BREAKER">
      <property name="rdfId" value="_79307cc6-6a4b-4a94-af31-b6f92d976b30"/>
      <busBreakerTopology>
        <bus id="400_79307cc6-6a4b-4a94-af31-b6f92d976b31" v="435.75739573925398" angle="0.01674063594299911"/>
        <bus id="400_79307cc6-6a4b-4a94-af31-b6f92d976b32" v="435.75496863259372" angle="0.016728794376679856"/>
        <bus id="400_79307cc6-6a4b-4a94-af31-b6f92d976b33" v="435.75667860063277" angle="0.016947280638984565"/>
      </busBreakerTopology>
      <shunt id="RAV1_744522e5-b43" bPerSection="-0.00062499998603016138" maximumSectionCount="1" currentSectionCount="1" bus="400_79307cc6-6a4b-4a94-af31-b6f92d976b33" connectableBus="400_79307cc6-6a4b-4a94-af31-b6f92d976b33" q="118.67742418801228">
        <property name="qMax" value="-100"/>
        <property name="rdfId" value="_744522e5-b43c-4470-8f8b-3da64250f1f5"/>
      </shunt>
      <shunt id="R42_b037ee52-0a1c" bPerSection="-0.00062499998603016138" maximumSectionCount="1" currentSectionCount="1" bus="400_79307cc6-6a4b-4a94-af31-b6f92d976b32" connectableBus="400_79307cc6-6a4b-4a94-af31-b6f92d976b32" q="118.67649277736905">
        <property name="qMax" value="-100"/>
        <property name="rdfId" value="_b037ee52-0a1c-4466-a1ca-20e58002b379"/>
      </shunt>
    </voltageLevel>
    <voltageLevel id="T42" nominalV="400" topologyKind="BUS_BREAKER">
      <property name="rdfId" value="PT_0fb24182-9ec3-4d6e-865e-bb591259a306"/>
      <property name="siteInit" value="undefined"/>
      <busBreakerTopology>
        <bus id="T421" v="424.57626158654131" angle="-0.010124266432462522"/>
      </busBreakerTopology>
    </voltageLevel>
    <twoWindingsTransformer id="T41_951e72ac-db7d-43" r="0.10768032073974609" x="9.3219146728515625" g="8.9359491539653391e-06" b="-5.6692144426051527e-05" ratedU1="400" ratedU2="132" voltageLevelId1="400_79307cc6-6a4b-4a94-af31-b6f92d976b3" bus1="400_79307cc6-6a4b-4a94-af31-b6f92d976b31" connectableBus1="400_79307cc6-6a4b-4a94-af31-b6f92d976b31" voltageLevelId2="132_9c4e306f-3ca4-4840-9010-1172c55c3ad" bus2="132_9c4e306f-3ca4-4840-9010-1172c55c3ad1" connectableBus2="132_9c4e306f-3ca4-4840-9010-1172c55c3ad1" p1="59.878360887965151" q1="-53.654357905119134" p2="-59.674430647087704" q2="58.000076826294134">
      <property name="rdfId" value="_951e72ac-db7d-4390-afbb-db918faa16b5"/>
      <ratioTapChanger lowTapPosition="0" tapPosition="8" loadTapChangingCapabilities="true" regulating="true" targetV="134.99639892578125">
        <terminalRef id="T41_951e72ac-db7d-43" side="TWO"/>
        <step r="0" x="0" g="0" b="0" rho="0.86375004053115845"/>
        <step r="0" x="0" g="0" b="0" rho="0.87424999475479126"/>
        <step r="0" x="0" g="0" b="0" rho="0.88475006818771362"/>
        <step r="0" x="0" g="0" b="0" rho="0.89525002241134644"/>
        <step r="0" x="0" g="0" b="0" rho="0.90574997663497925"/>
        <step r="0" x="0" g="0" b="0" rho="0.91625005006790161"/>
        <step r="0" x="0" g="0" b="0" rho="0.92674994468688965"/>
        <step r="0" x="0" g="0" b="0" rho="0.93700003623962402"/>
        <step r="0" x="0" g="0" b="0" rho="0.94749999046325684"/>
        <step r="0" x="0" g="0" b="0" rho="0.95800000429153442"/>
        <step r="0" x="0" g="0" b="0" rho="0.96850007772445679"/>
        <step r="0" x="0" g="0" b="0" rho="0.9790000319480896"/>
        <step r="0" x="0" g="0" b="0" rho="0.98949998617172241"/>
        <step r="0" x="0" g="0" b="0" rho="1"/>
        <step r="0" x="0" g="0" b="0" rho="1.0104999542236328"/>
        <step r="0" x="0" g="0" b="0" rho="1.0210000276565552"/>
        <step r="0" x="0" g="0" b="0" rho="1.031499981880188"/>
        <step r="0" x="0" g="0" b="0" rho="1.0420000553131104"/>
        <step r="0" x="0" g="0" b="0" rho="1.0525000095367432"/>
        <step r="0" x="0" g="0" b="0" rho="1.062999963760376"/>
        <step r="0" x="0" g="0" b="0" rho="1.0732500553131104"/>
        <step r="0" x="0" g="0" b="0" rho="1.0837500095367432"/>
        <step r="0" x="0" g="0" b="0" rho="1.094249963760376"/>
        <step r="0" x="0" g="0" b="0" rho="1.1047500371932983"/>
        <step r="0" x="0" g="0" b="0" rho="1.1152499914169312"/>
        <step r="0" x="0" g="0" b="0" rho="1.1257500648498535"/>
        <step r="0" x="0" g="0" b="0" rho="1.1362500190734863"/>
      </ratioTapChanger>
      <currentLimits1 permanentLimit="2187">
        <temporaryLimit name="N/A" value="904"/>
        <temporaryLimit name="IT15" acceptableDuration="900"/>
      </currentLimits1>
      <currentLimits2 permanentLimit="2187">
        <temporaryLimit name="N/A" value="2733.75"/>
        <temporaryLimit name="IT15" acceptableDuration="900"/>
      </currentLimits2>
    </twoWindingsTransformer>
    <twoWindingsTransformer id="T42.1_f81999c2-e186-" r="0.22358404099941254" x="55.852512359619141" g="1.0598123623140054e-07" b="-2.4924997887865175e-07" ratedU1="410" ratedU2="410" voltageLevelId1="400_79307cc6-6a4b-4a94-af31-b6f92d976b3" bus1="400_79307cc6-6a4b-4a94-af31-b6f92d976b31" connectableBus1="400_79307cc6-6a4b-4a94-af31-b6f92d976b31" voltageLevelId2="T42" bus2="T421" connectableBus2="T421" p1="1.2035834566729926" q1="-73.113310137118049" p2="-1.1783962070654794" q2="74.894537728992276">
      <property name="rdfId" value="_f81999c2-e186-4c3e-8641-7765ca9163c5"/>
      <ratioTapChanger lowTapPosition="0" tapPosition="5" loadTapChangingCapabilities="true" regulating="false">
        <terminalRef id="T42.1_f81999c2-e186-" side="ONE"/>
        <step r="0" x="0" g="0" b="0" rho="0.90791064500808716"/>
        <step r="0" x="0" g="0" b="0" rho="0.91634923219680786"/>
        <step r="0" x="0" g="0" b="0" rho="0.92494618892669678"/>
        <step r="0" x="0" g="0" b="0" rho="0.93370592594146729"/>
        <step r="0" x="0" g="0" b="0" rho="0.94263321161270142"/>
        <step r="0" x="0" g="0" b="0" rho="0.95173287391662598"/>
        <step r="0" x="0" g="0" b="0" rho="0.9610099196434021"/>
        <step r="0" x="0" g="0" b="0" rho="0.97046959400177002"/>
        <step r="0" x="0" g="0" b="0" rho="0.9801173210144043"/>
        <step r="0" x="0" g="0" b="0" rho="0.98995882272720337"/>
        <step r="0" x="0" g="0" b="0" rho="1"/>
        <step r="0" x="0" g="0" b="0" rho="1.0102469921112061"/>
        <step r="0" x="0" g="0" b="0" rho="1.0207060575485229"/>
        <step r="0" x="0" g="0" b="0" rho="1.0313839912414551"/>
        <step r="0" x="0" g="0" b="0" rho="1.0422877073287964"/>
        <step r="0" x="0" g="0" b="0" rho="1.0534244775772095"/>
        <step r="0" x="0" g="0" b="0" rho="1.0648016929626465"/>
        <step r="0" x="0" g="0" b="0" rho="1.0764274597167969"/>
        <step r="0" x="0" g="0" b="0" rho="1.0883097648620605"/>
        <step r="0" x="0" g="0" b="0" rho="1.1004574298858643"/>
        <step r="0" x="0" g="0" b="0" rho="1.1128793954849243"/>
      </ratioTapChanger>
    </twoWindingsTransformer>
    <twoWindingsTransformer id="T42.2_e12ec16b-beb7-" r="0.050949890166521072" x="-3.9338884353637695" g="3.1504532671533525e-07" b="-7.4093338753300486e-07" ratedU1="410" ratedU2="238.27200317382812" voltageLevelId1="T42" bus1="T421" connectableBus1="T421" voltageLevelId2="232_0c60641e-46c3-4a7b-bc24-d88673a01d7" bus2="232_0c60641e-46c3-4a7b-bc24-d88673a01d71" connectableBus2="232_0c60641e-46c3-4a7b-bc24-d88673a01d71" p1="1.1602120698764509" q1="-74.912714361736676" p2="-1.1363283019778463" q2="74.594689993277967">
      <property name="rdfId" value="_e12ec16b-beb7-42ba-a0aa-9ddb52a7e813"/>
      <ratioTapChanger lowTapPosition="0" tapPosition="0" loadTapChangingCapabilities="true" regulating="false">
        <terminalRef id="T42.2_e12ec16b-beb7-" side="ONE"/>
        <step r="0" x="0" g="0" b="0" rho="1"/>
      </ratioTapChanger>
    </twoWindingsTransformer>
    <twoWindingsTransformer id="T42.3_93d3f226-0920-" r="0.023198781535029411" x="0.21400041878223419" g="0.00016956999024841934" b="-0.00016950001008808613" ratedU1="410" ratedU2="10" voltageLevelId1="T42" bus1="T421" connectableBus1="T421" voltageLevelId2="10_36d15df6-f915-48fc-aca0-9f1b66c272b8" bus2="10_36d15df6-f915-48fc-aca0-9f1b66c272b81" connectableBus2="10_36d15df6-f915-48fc-aca0-9f1b66c272b81" p1="0.018184137189040155" q1="0.018176632743073646" p2="1.6060209909023338e-14" q2="9.1378992012984666e-14">
      <property name="rdfId" value="_93d3f226-0920-4a4f-ad83-c543adc850e6"/>
      <ratioTapChanger lowTapPosition="0" tapPosition="0" loadTapChangingCapabilities="true" regulating="false">
        <terminalRef id="T42.3_93d3f226-0920-" side="ONE"/>
        <step r="0" x="0" g="0" b="0" rho="1"/>
      </ratioTapChanger>
    </twoWindingsTransformer>
  </substation>
  <substation id="KAK_0" country="FR" tso="RTE">
    <property name="paysCvg" value="DANEMARK EST"/>
    <property name="regionCvg" value="DK2"/>
    <voltageLevel id="10_3a92e399-db2f-4d4d-9425-4a2db574e053" nominalV="10" lowVoltageLimit="8" highVoltageLimit="12" topologyKind="BUS_BREAKER">
      <property name="rdfId" value="_3a92e399-db2f-4d4d-9425-4a2db574e053"/>
      <busBreakerTopology>
        <bus id="10_3a92e399-db2f-4d4d-9425-4a2db574e0531" v="11.858466899562321" angle="-5.7913846982648218"/>
      </busBreakerTopology>
      <generator id="K_PQ_15582ef4-5fd" energySource="THERMAL" minP="0" maxP="0.029999999329447746" voltageRegulatorOn="false" targetP="0" targetQ="0" targetV="11.357565879821777" connectableBus="10_3a92e399-db2f-4d4d-9425-4a2db574e0531" p="-0" q="-0">
        <property name="genreCvg" value="CHARBON"/>
        <property name="rdfId" value="_a6a1d858-e93a-4a84-bcca-53906ccc5579"/>
        <reactiveCapabilityCurve>
          <point p="0" minQ="-0.036400001496076584" maxQ="0.14560000598430634"/>
          <point p="0.029999999329447746" minQ="-0.036400001496076584" maxQ="0.14560000598430634"/>
        </reactiveCapabilityCurve>
      </generator>
      <generator id="K_PV_db6bd1c3-704" energySource="OTHER" minP="0" maxP="0.034499999135732651" voltageRegulatorOn="false" targetP="0.002899999963119626" targetQ="0" targetV="11.357565879821777" bus="10_3a92e399-db2f-4d4d-9425-4a2db574e0531" connectableBus="10_3a92e399-db2f-4d4d-9425-4a2db574e0531" p="-0.002899999963119626" q="0">
        <property name="genreCvg" value="AUTRE"/>
        <property name="rdfId" value="_fe617179-4683-42ff-a364-c6762ed9423f"/>
        <reactiveCapabilityCurve>
          <point p="0" minQ="0" maxQ="0"/>
          <point p="0.034499999135732651" minQ="0" maxQ="0"/>
        </reactiveCapabilityCurve>
      </generator>
      <load id="K_FORBRUG.K" loadType="UNDEFINED" p0="12.841059684753418" q0="3.1769616603851318" bus="10_3a92e399-db2f-4d4d-9425-4a2db574e0531" connectableBus="10_3a92e399-db2f-4d4d-9425-4a2db574e0531" p="12.841059684753416" q="3.1769616603851318">
        <property name="rdfId" value="_c6f3c246-86b1-496c-a4b7-96e751fb9307"/>
      </load>
    </voltageLevel>
    <voltageLevel id="132_f2a7b6b3-9526-43ea-8293-92bb41522d3" nominalV="132" lowVoltageLimit="124" highVoltageLimit="145" topologyKind="BUS_BREAKER">
      <property name="rdfId" value="_f2a7b6b3-9526-43ea-8293-92bb41522d3c"/>
      <busBreakerTopology>
        <bus id="132_f2a7b6b3-9526-43ea-8293-92bb41522d31" v="137.32294937502067" angle="-3.9497199140313248"/>
      </busBreakerTopology>
      <load id="T25_bc90ac5f-c800" loadType="UNDEFINED" p0="4.4005880355834961" q0="1.0887341499328613" bus="132_f2a7b6b3-9526-43ea-8293-92bb41522d31" connectableBus="132_f2a7b6b3-9526-43ea-8293-92bb41522d31" p="4.4005880355834961" q="1.0887341499328613">
        <property name="rdfId" value="_bc90ac5f-c800-44a7-b3ac-03a3ae8c1407"/>
      </load>
    </voltageLevel>
    <twoWindingsTransformer id="T131_b163060f-9d57-4" r="0.0069999992847442627" x="0.71224057674407959" g="0" b="-6.0500005929498002e-06" ratedU1="132" ratedU2="11.5" voltageLevelId1="132_f2a7b6b3-9526-43ea-8293-92bb41522d3" bus1="132_f2a7b6b3-9526-43ea-8293-92bb41522d31" connectableBus1="132_f2a7b6b3-9526-43ea-8293-92bb41522d31" voltageLevelId2="10_3a92e399-db2f-4d4d-9425-4a2db574e053" bus2="10_3a92e399-db2f-4d4d-9425-4a2db574e0531" connectableBus2="10_3a92e399-db2f-4d4d-9425-4a2db574e0531" p1="6.4192747704935851" q1="1.8090049533168568" p2="-6.4170995960131858" q2="-1.586817912148986">
      <property name="rdfId" value="_b163060f-9d57-4ef0-b500-25312f966800"/>
      <ratioTapChanger lowTapPosition="0" tapPosition="11" loadTapChangingCapabilities="true" regulating="false">
        <terminalRef id="T131_b163060f-9d57-4" side="TWO"/>
        <step r="0" x="0" g="0" b="0" rho="1.2815090417861938"/>
        <step r="0" x="0" g="0" b="0" rho="1.2495313882827759"/>
        <step r="0" x="0" g="0" b="0" rho="1.2191107273101807"/>
        <step r="0" x="0" g="0" b="0" rho="1.190136194229126"/>
        <step r="0" x="0" g="0" b="0" rho="1.1625068187713623"/>
        <step r="0" x="0" g="0" b="0" rho="1.1361312866210938"/>
        <step r="0" x="0" g="0" b="0" rho="1.1109259128570557"/>
        <step r="0" x="0" g="0" b="0" rho="1.0868147611618042"/>
        <step r="0" x="0" g="0" b="0" rho="1.0637279748916626"/>
        <step r="0" x="0" g="0" b="0" rho="1.0416015386581421"/>
        <step r="0" x="0" g="0" b="0" rho="1.0203769207000732"/>
        <step r="0" x="0" g="0" b="0" rho="1"/>
        <step r="0" x="0" g="0" b="0" rho="0.98042100667953491"/>
        <step r="0" x="0" g="0" b="0" rho="0.96159392595291138"/>
        <step r="0" x="0" g="0" b="0" rho="0.94347631931304932"/>
        <step r="0" x="0" g="0" b="0" rho="0.92602884769439697"/>
        <step r="0" x="0" g="0" b="0" rho="0.90921491384506226"/>
        <step r="0" x="0" g="0" b="0" rho="0.89300066232681274"/>
        <step r="0" x="0" g="0" b="0" rho="0.87735462188720703"/>
        <step r="0" x="0" g="0" b="0" rho="0.86224734783172607"/>
        <step r="0" x="0" g="0" b="0" rho="0.84765160083770752"/>
        <step r="0" x="0" g="0" b="0" rho="0.83354169130325317"/>
        <step r="0" x="0" g="0" b="0" rho="0.81989389657974243"/>
      </ratioTapChanger>
      <currentLimits1 permanentLimit="175.00001525878906">
        <temporaryLimit name="N/A" value="218.75"/>
        <temporaryLimit name="IT15" acceptableDuration="900"/>
      </currentLimits1>
      <currentLimits2 permanentLimit="175.00001525878906"/>
    </twoWindingsTransformer>
    <twoWindingsTransformer id="T132_c47c98fa-0cf3-4" r="0.0067500006407499313" x="0.7117430567741394" g="0" b="-6.0500005929498002e-06" ratedU1="132" ratedU2="11.5" voltageLevelId1="132_f2a7b6b3-9526-43ea-8293-92bb41522d3" bus1="132_f2a7b6b3-9526-43ea-8293-92bb41522d31" connectableBus1="132_f2a7b6b3-9526-43ea-8293-92bb41522d31" voltageLevelId2="10_3a92e399-db2f-4d4d-9425-4a2db574e053" bus2="10_3a92e399-db2f-4d4d-9425-4a2db574e0531" connectableBus2="10_3a92e399-db2f-4d4d-9425-4a2db574e0531" p1="6.4231598627931294" q1="1.8124867869010564" p2="-6.4210594253501174" q2="-1.5901435658722607">
      <property name="rdfId" value="_c47c98fa-0cf3-4a14-9d93-cd509babd0d6"/>
      <ratioTapChanger lowTapPosition="0" tapPosition="11" loadTapChangingCapabilities="true" regulating="false">
        <terminalRef id="T132_c47c98fa-0cf3-4" side="TWO"/>
        <step r="0" x="0" g="0" b="0" rho="1.2815090417861938"/>
        <step r="0" x="0" g="0" b="0" rho="1.2495313882827759"/>
        <step r="0" x="0" g="0" b="0" rho="1.2191107273101807"/>
        <step r="0" x="0" g="0" b="0" rho="1.190136194229126"/>
        <step r="0" x="0" g="0" b="0" rho="1.1625068187713623"/>
        <step r="0" x="0" g="0" b="0" rho="1.1361312866210938"/>
        <step r="0" x="0" g="0" b="0" rho="1.1109259128570557"/>
        <step r="0" x="0" g="0" b="0" rho="1.0868147611618042"/>
        <step r="0" x="0" g="0" b="0" rho="1.0637279748916626"/>
        <step r="0" x="0" g="0" b="0" rho="1.0416015386581421"/>
        <step r="0" x="0" g="0" b="0" rho="1.0203769207000732"/>
        <step r="0" x="0" g="0" b="0" rho="1"/>
        <step r="0" x="0" g="0" b="0" rho="0.98042100667953491"/>
        <step r="0" x="0" g="0" b="0" rho="0.96159392595291138"/>
        <step r="0" x="0" g="0" b="0" rho="0.94347631931304932"/>
        <step r="0" x="0" g="0" b="0" rho="0.92602884769439697"/>
        <step r="0" x="0" g="0" b="0" rho="0.90921491384506226"/>
        <step r="0" x="0" g="0" b="0" rho="0.89300066232681274"/>
        <step r="0" x="0" g="0" b="0" rho="0.87735462188720703"/>
        <step r="0" x="0" g="0" b="0" rho="0.86224734783172607"/>
        <step r="0" x="0" g="0" b="0" rho="0.84765160083770752"/>
        <step r="0" x="0" g="0" b="0" rho="0.83354169130325317"/>
        <step r="0" x="0" g="0" b="0" rho="0.81989389657974243"/>
      </ratioTapChanger>
      <currentLimits1 permanentLimit="175.00001525878906">
        <temporaryLimit name="N/A" value="218.75"/>
        <temporaryLimit name="IT15" acceptableDuration="900"/>
      </currentLimits1>
      <currentLimits2 permanentLimit="175.00001525878906"/>
    </twoWindingsTransformer>
  </substation>
  <substation id="FLA_5" country="FR" tso="RTE">
    <property name="paysCvg" value="DANEMARK EST"/>
    <property name="regionCvg" value="DK2"/>
    <voltageLevel id="10_4b0c387c-dda4-46c3-a8f9-51b30eedabc3" nominalV="10" lowVoltageLimit="8" highVoltageLimit="12" topologyKind="BUS_BREAKER">
      <property name="rdfId" value="_4b0c387c-dda4-46c3-a8f9-51b30eedabc3"/>
      <busBreakerTopology>
        <bus id="10_4b0c387c-dda4-46c3-a8f9-51b30eedabc31" v="11.52133435226329" angle="-3.8588677067796491"/>
      </busBreakerTopology>
      <load id="K_FORBRUG.9" loadType="UNDEFINED" p0="26.166231155395508" q0="6.4736952781677246" bus="10_4b0c387c-dda4-46c3-a8f9-51b30eedabc31" connectableBus="10_4b0c387c-dda4-46c3-a8f9-51b30eedabc31" p="26.166231155395508" q="6.4736952781677255">
        <property name="rdfId" value="_9a54b1af-c9e1-42f4-ba4c-666f4d408a66"/>
      </load>
    </voltageLevel>
    <voltageLevel id="132_b8f241ee-ab20-4970-83ec-a28bc970907" nominalV="132" lowVoltageLimit="124" highVoltageLimit="145" topologyKind="BUS_BREAKER">
      <property name="rdfId" value="_b8f241ee-ab20-4970-83ec-a28bc9709078"/>
      <busBreakerTopology>
        <bus id="132_b8f241ee-ab20-4970-83ec-a28bc9709071" v="139.82828894580902" angle="-1.6641209593201631"/>
      </busBreakerTopology>
      <load id="KDF2_2fd7dc93-671" loadType="UNDEFINED" p0="0" q0="0" bus="132_b8f241ee-ab20-4970-83ec-a28bc9709071" connectableBus="132_b8f241ee-ab20-4970-83ec-a28bc9709071" p="0" q="0">
        <property name="rdfId" value="_2fd7dc93-671e-4cbd-b703-fb7dbec03665"/>
      </load>
      <load id="KDF1_96ffb525-6a1" loadType="UNDEFINED" p0="0" q0="0" bus="132_b8f241ee-ab20-4970-83ec-a28bc9709071" connectableBus="132_b8f241ee-ab20-4970-83ec-a28bc9709071" p="0" q="0">
        <property name="rdfId" value="_96ffb525-6a15-4b1d-88b6-f4d8877812a2"/>
      </load>
    </voltageLevel>
    <twoWindingsTransformer id="T21_fd18b5bb-5db5-47" r="0.015238099731504917" x="0.59428083896636963" g="0.00014875999477226287" b="-0.00024468998890370131" ratedU1="132" ratedU2="11" voltageLevelId1="132_b8f241ee-ab20-4970-83ec-a28bc970907" bus1="132_b8f241ee-ab20-4970-83ec-a28bc9709071" connectableBus1="132_b8f241ee-ab20-4970-83ec-a28bc9709071" voltageLevelId2="10_4b0c387c-dda4-46c3-a8f9-51b30eedabc3" bus2="10_4b0c387c-dda4-46c3-a8f9-51b30eedabc31" connectableBus2="10_4b0c387c-dda4-46c3-a8f9-51b30eedabc31" p1="8.7358713156650545" q1="2.5444927495710079" p2="-8.7064400893345155" q2="-2.1511863644667293">
      <property name="rdfId" value="_fd18b5bb-5db5-4749-98b6-33802b9e1c10"/>
      <ratioTapChanger lowTapPosition="0" tapPosition="9" loadTapChangingCapabilities="true" regulating="false">
        <terminalRef id="T21_fd18b5bb-5db5-47" side="TWO"/>
        <step r="0" x="0" g="0" b="0" rho="0.8474576473236084"/>
        <step r="0" x="0" g="0" b="0" rho="0.86206895112991333"/>
        <step r="0" x="0" g="0" b="0" rho="0.87719297409057617"/>
        <step r="0" x="0" g="0" b="0" rho="0.8928571343421936"/>
        <step r="0" x="0" g="0" b="0" rho="0.90909093618392944"/>
        <step r="0" x="0" g="0" b="0" rho="0.92592591047286987"/>
        <step r="0" x="0" g="0" b="0" rho="0.94339621067047119"/>
        <step r="0" x="0" g="0" b="0" rho="0.96153843402862549"/>
        <step r="0" x="0" g="0" b="0" rho="0.98039215803146362"/>
        <step r="0" x="0" g="0" b="0" rho="1"/>
        <step r="0" x="0" g="0" b="0" rho="1.0204081535339355"/>
        <step r="0" x="0" g="0" b="0" rho="1.0416666269302368"/>
        <step r="0" x="0" g="0" b="0" rho="1.063829779624939"/>
        <step r="0" x="0" g="0" b="0" rho="1.0869565010070801"/>
        <step r="0" x="0" g="0" b="0" rho="1.1111111640930176"/>
        <step r="0" x="0" g="0" b="0" rho="1.1363636255264282"/>
        <step r="0" x="0" g="0" b="0" rho="1.1627906560897827"/>
        <step r="0" x="0" g="0" b="0" rho="1.1904761791229248"/>
        <step r="0" x="0" g="0" b="0" rho="1.2195122241973877"/>
      </ratioTapChanger>
      <currentLimits1 permanentLimit="1821">
        <temporaryLimit name="N/A" value="172.5"/>
        <temporaryLimit name="IT15" acceptableDuration="900"/>
      </currentLimits1>
      <currentLimits2 permanentLimit="1821">
        <temporaryLimit name="N/A" value="2276"/>
        <temporaryLimit name="IT15" acceptableDuration="900"/>
      </currentLimits2>
    </twoWindingsTransformer>
    <twoWindingsTransformer id="T22_0e298838-c335-4f" r="0.014920600689947605" x="0.59936976432800293" g="0.000152729990077205" b="-0.00027252000290900469" ratedU1="132" ratedU2="11" voltageLevelId1="132_b8f241ee-ab20-4970-83ec-a28bc970907" bus1="132_b8f241ee-ab20-4970-83ec-a28bc9709071" connectableBus1="132_b8f241ee-ab20-4970-83ec-a28bc9709071" voltageLevelId2="10_4b0c387c-dda4-46c3-a8f9-51b30eedabc3" bus2="10_4b0c387c-dda4-46c3-a8f9-51b30eedabc31" connectableBus2="10_4b0c387c-dda4-46c3-a8f9-51b30eedabc31" p1="8.6607110603850277" q1="2.5334509273291053" p2="-8.6310857058444324" q2="-2.1394096479591509">
      <property name="rdfId" value="_0e298838-c335-4fdc-b292-2825a53ef2bd"/>
      <ratioTapChanger lowTapPosition="0" tapPosition="9" loadTapChangingCapabilities="true" regulating="false">
        <terminalRef id="T22_0e298838-c335-4f" side="TWO"/>
        <step r="0" x="0" g="0" b="0" rho="0.8474576473236084"/>
        <step r="0" x="0" g="0" b="0" rho="0.86206895112991333"/>
        <step r="0" x="0" g="0" b="0" rho="0.87719297409057617"/>
        <step r="0" x="0" g="0" b="0" rho="0.8928571343421936"/>
        <step r="0" x="0" g="0" b="0" rho="0.90909093618392944"/>
        <step r="0" x="0" g="0" b="0" rho="0.92592591047286987"/>
        <step r="0" x="0" g="0" b="0" rho="0.94339621067047119"/>
        <step r="0" x="0" g="0" b="0" rho="0.96153843402862549"/>
        <step r="0" x="0" g="0" b="0" rho="0.98039215803146362"/>
        <step r="0" x="0" g="0" b="0" rho="1"/>
        <step r="0" x="0" g="0" b="0" rho="1.0204081535339355"/>
        <step r="0" x="0" g="0" b="0" rho="1.0416666269302368"/>
        <step r="0" x="0" g="0" b="0" rho="1.063829779624939"/>
        <step r="0" x="0" g="0" b="0" rho="1.0869565010070801"/>
        <step r="0" x="0" g="0" b="0" rho="1.1111111640930176"/>
        <step r="0" x="0" g="0" b="0" rho="1.1363636255264282"/>
        <step r="0" x="0" g="0" b="0" rho="1.1627906560897827"/>
        <step r="0" x="0" g="0" b="0" rho="1.1904761791229248"/>
        <step r="0" x="0" g="0" b="0" rho="1.2195122241973877"/>
      </ratioTapChanger>
      <currentLimits1 permanentLimit="1821">
        <temporaryLimit name="N/A" value="172.5"/>
        <temporaryLimit name="IT15" acceptableDuration="900"/>
      </currentLimits1>
      <currentLimits2 permanentLimit="1821">
        <temporaryLimit name="N/A" value="2276"/>
        <temporaryLimit name="IT15" acceptableDuration="900"/>
      </currentLimits2>
    </twoWindingsTransformer>
    <twoWindingsTransformer id="T23_533d43ec-c1bf-4d" r="0.014920600689947605" x="0.58603191375732422" g="0.00015701999654993415" b="-0.00029095000354573131" ratedU1="132" ratedU2="11" voltageLevelId1="132_b8f241ee-ab20-4970-83ec-a28bc970907" bus1="132_b8f241ee-ab20-4970-83ec-a28bc9709071" connectableBus1="132_b8f241ee-ab20-4970-83ec-a28bc9709071" voltageLevelId2="10_4b0c387c-dda4-46c3-a8f9-51b30eedabc3" bus2="10_4b0c387c-dda4-46c3-a8f9-51b30eedabc31" connectableBus2="10_4b0c387c-dda4-46c3-a8f9-51b30eedabc31" p1="8.8592541617946967" q1="2.5877313228109715" p2="-8.8286374045197906" q2="-2.1830720076049825">
      <property name="rdfId" value="_533d43ec-c1bf-4d6a-b5a8-d06e875e1b95"/>
      <ratioTapChanger lowTapPosition="0" tapPosition="9" loadTapChangingCapabilities="true" regulating="false">
        <terminalRef id="T23_533d43ec-c1bf-4d" side="TWO"/>
        <step r="0" x="0" g="0" b="0" rho="0.8474576473236084"/>
        <step r="0" x="0" g="0" b="0" rho="0.86206895112991333"/>
        <step r="0" x="0" g="0" b="0" rho="0.87719297409057617"/>
        <step r="0" x="0" g="0" b="0" rho="0.8928571343421936"/>
        <step r="0" x="0" g="0" b="0" rho="0.90909093618392944"/>
        <step r="0" x="0" g="0" b="0" rho="0.92592591047286987"/>
        <step r="0" x="0" g="0" b="0" rho="0.94339621067047119"/>
        <step r="0" x="0" g="0" b="0" rho="0.96153843402862549"/>
        <step r="0" x="0" g="0" b="0" rho="0.98039215803146362"/>
        <step r="0" x="0" g="0" b="0" rho="1"/>
        <step r="0" x="0" g="0" b="0" rho="1.0204081535339355"/>
        <step r="0" x="0" g="0" b="0" rho="1.0416666269302368"/>
        <step r="0" x="0" g="0" b="0" rho="1.063829779624939"/>
        <step r="0" x="0" g="0" b="0" rho="1.0869565010070801"/>
        <step r="0" x="0" g="0" b="0" rho="1.1111111640930176"/>
        <step r="0" x="0" g="0" b="0" rho="1.1363636255264282"/>
        <step r="0" x="0" g="0" b="0" rho="1.1627906560897827"/>
        <step r="0" x="0" g="0" b="0" rho="1.1904761791229248"/>
        <step r="0" x="0" g="0" b="0" rho="1.2195122241973877"/>
      </ratioTapChanger>
      <currentLimits1 permanentLimit="1821">
        <temporaryLimit name="N/A" value="172.5"/>
        <temporaryLimit name="IT15" acceptableDuration="900"/>
      </currentLimits1>
      <currentLimits2 permanentLimit="1821">
        <temporaryLimit name="N/A" value="2276"/>
        <temporaryLimit name="IT15" acceptableDuration="900"/>
      </currentLimits2>
    </twoWindingsTransformer>
  </substation>
  <substation id="NKV_3" country="FR" tso="RTE">
    <property name="paysCvg" value="DANEMARK EST"/>
    <property name="regionCvg" value="DK2"/>
    <voltageLevel id="10_4e3e9755-fdce-4955-88b6-930d056240cf" nominalV="10" lowVoltageLimit="8" highVoltageLimit="12" topologyKind="BUS_BREAKER">
      <property name="rdfId" value="_4e3e9755-fdce-4955-88b6-930d056240cf"/>
      <busBreakerTopology>
        <bus id="10_4e3e9755-fdce-4955-88b6-930d056240cf1" v="10.346656621796754" angle="3.1657982741532646"/>
      </busBreakerTopology>
      <generator id="NKV_GEN" energySource="THERMAL" minP="0" maxP="13.699999809265137" voltageRegulatorOn="false" targetP="7.8000001907348633" targetQ="0" targetV="10" bus="10_4e3e9755-fdce-4955-88b6-930d056240cf1" connectableBus="10_4e3e9755-fdce-4955-88b6-930d056240cf1" p="-7.8000001907348624" q="8.6736173798840355e-17">
        <property name="genreCvg" value="CHARBON"/>
        <property name="rdfId" value="_08d3c175-e704-41d0-ac3d-f3337039d939"/>
        <reactiveCapabilityCurve>
          <point p="0" minQ="-7.9000601768493652" maxQ="11.5"/>
          <point p="13.699999809265137" minQ="-7.9000601768493652" maxQ="11.5"/>
        </reactiveCapabilityCurve>
      </generator>
    </voltageLevel>
    <voltageLevel id="50_4ccfad12-82a6-411c-9909-70a596da829b" nominalV="50" lowVoltageLimit="45" highVoltageLimit="54" topologyKind="BUS_BREAKER">
      <property name="rdfId" value="_4ccfad12-82a6-411c-9909-70a596da829b"/>
      <busBreakerTopology>
        <bus id="50_4ccfad12-82a6-411c-9909-70a596da829b1" v="51.722049615947796" angle="2.3415221825774313"/>
      </busBreakerTopology>
    </voltageLevel>
    <twoWindingsTransformer id="MT1_f1b37274-0f10-43" r="0.0044000004418194294" x="0.19740003347396851" g="0.0001983499969355762" b="-7.1209993620868772e-05" ratedU1="55" ratedU2="11" voltageLevelId1="50_4ccfad12-82a6-411c-9909-70a596da829b" bus1="50_4ccfad12-82a6-411c-9909-70a596da829b1" connectableBus1="50_4ccfad12-82a6-411c-9909-70a596da829b1" voltageLevelId2="10_4e3e9755-fdce-4955-88b6-930d056240cf" bus2="10_4e3e9755-fdce-4955-88b6-930d056240cf1" connectableBus2="10_4e3e9755-fdce-4955-88b6-930d056240cf1" p1="-7.7762572603463447" q1="0.11979715208425405" p2="7.7999826373020147" q2="7.7068465216371951e-06">
      <property name="rdfId" value="_f1b37274-0f10-4307-93fa-3227eea38f8a"/>
      <ratioTapChanger lowTapPosition="0" tapPosition="0" loadTapChangingCapabilities="true" regulating="false">
        <terminalRef id="MT1_f1b37274-0f10-43" side="ONE"/>
        <step r="0" x="0" g="0" b="0" rho="1"/>
      </ratioTapChanger>
    </twoWindingsTransformer>
  </substation>
  <substation id="HØK_6" country="FR" tso="RTE">
    <property name="paysCvg" value="DANEMARK EST"/>
    <property name="regionCvg" value="DK2"/>
    <voltageLevel id="10_4ec52c67-807d-42dc-873a-eaac5d0a1b9b" nominalV="10" lowVoltageLimit="8" highVoltageLimit="12" topologyKind="BUS_BREAKER">
      <property name="rdfId" value="_4ec52c67-807d-42dc-873a-eaac5d0a1b9b"/>
      <busBreakerTopology>
        <bus id="10_4ec52c67-807d-42dc-873a-eaac5d0a1b9b1" v="10.100000998498167" angle="-3.2038886788352254"/>
      </busBreakerTopology>
      <generator id="HØKGT_GEN" energySource="THERMAL" minP="0" maxP="59" voltageRegulatorOn="true" targetP="14.5" targetQ="-25.999799728393555" targetV="10.100000381469727" bus="10_4ec52c67-807d-42dc-873a-eaac5d0a1b9b1" connectableBus="10_4ec52c67-807d-42dc-873a-eaac5d0a1b9b1" p="-14.932069950724959" q="62.904207248903965">
        <property name="genreCvg" value="CHARBON"/>
        <property name="rdfId" value="_473f887d-3a60-4e00-bfd6-88cc0e38b472"/>
        <reactiveCapabilityCurve>
          <point p="0" minQ="-25.999799728393555" maxQ="55.800098419189453"/>
          <point p="59" minQ="-25.999799728393555" maxQ="55.800098419189453"/>
        </reactiveCapabilityCurve>
      </generator>
    </voltageLevel>
    <voltageLevel id="50_65bd45f8-ea0e-42db-a29a-77a726617b68" nominalV="50" lowVoltageLimit="45" highVoltageLimit="54" topologyKind="BUS_BREAKER">
      <property name="rdfId" value="_65bd45f8-ea0e-42db-a29a-77a726617b68"/>
      <busBreakerTopology>
        <bus id="50_65bd45f8-ea0e-42db-a29a-77a726617b681" v="51.604476500444143" angle="-4.8236979923119589"/>
      </busBreakerTopology>
    </voltageLevel>
    <twoWindingsTransformer id="MT1_932aaca9-87c7-49" r="0.0037333306390792131" x="0.20133903622627258" g="0.00037300001713447273" b="-0.00022381996677722782" ratedU1="50" ratedU2="11" voltageLevelId1="50_65bd45f8-ea0e-42db-a29a-77a726617b68" bus1="50_65bd45f8-ea0e-42db-a29a-77a726617b681" connectableBus1="50_65bd45f8-ea0e-42db-a29a-77a726617b681" voltageLevelId2="10_4ec52c67-807d-42dc-873a-eaac5d0a1b9b" bus2="10_4ec52c67-807d-42dc-873a-eaac5d0a1b9b1" connectableBus2="10_4ec52c67-807d-42dc-873a-eaac5d0a1b9b1" p1="-14.731103078585017" q1="71.182968458490464" p2="14.932153947359739" q2="-62.904168297014195">
      <property name="rdfId" value="_932aaca9-87c7-49f2-8e65-ef9bde969b38"/>
      <ratioTapChanger lowTapPosition="0" tapPosition="0" loadTapChangingCapabilities="true" regulating="false">
        <terminalRef id="MT1_932aaca9-87c7-49" side="ONE"/>
        <step r="0" x="0" g="0" b="0" rho="1"/>
      </ratioTapChanger>
    </twoWindingsTransformer>
  </substation>
  <substation id="ORH_0" country="FR" tso="RTE">
    <property name="paysCvg" value="DANEMARK EST"/>
    <property name="regionCvg" value="DK2"/>
    <voltageLevel id="10_52258c72-94e5-4acc-a1d1-0ef551bc8f51" nominalV="10" lowVoltageLimit="8" highVoltageLimit="12" topologyKind="BUS_BREAKER">
      <property name="rdfId" value="_52258c72-94e5-4acc-a1d1-0ef551bc8f51"/>
      <busBreakerTopology>
        <bus id="10_52258c72-94e5-4acc-a1d1-0ef551bc8f511" v="11.498652589749289" angle="2.7068332684280558"/>
      </busBreakerTopology>
      <generator id="K_PV_3a09b0a2-8b7" energySource="OTHER" minP="0" maxP="0.27619999647140503" voltageRegulatorOn="false" targetP="0.023499999195337296" targetQ="0" targetV="11.217096328735352" bus="10_52258c72-94e5-4acc-a1d1-0ef551bc8f511" connectableBus="10_52258c72-94e5-4acc-a1d1-0ef551bc8f511" p="-0.023499999195337299" q="0">
        <property name="genreCvg" value="AUTRE"/>
        <property name="rdfId" value="_bc193bbe-d413-4d34-868a-1acd9af1f45b"/>
        <reactiveCapabilityCurve>
          <point p="0" minQ="0" maxQ="0"/>
          <point p="0.27619999647140503" minQ="0" maxQ="0"/>
        </reactiveCapabilityCurve>
      </generator>
      <load id="K_FORBRUG.4" loadType="UNDEFINED" p0="2.4002759456634521" q0="0.59384387731552124" bus="10_52258c72-94e5-4acc-a1d1-0ef551bc8f511" connectableBus="10_52258c72-94e5-4acc-a1d1-0ef551bc8f511" p="2.4002759456634521" q="0.59384387731552124">
        <property name="rdfId" value="_5960d82f-b51b-4bb2-b345-1c5ac760ac80"/>
      </load>
    </voltageLevel>
    <voltageLevel id="132_0fe95ab7-b2c3-4ad4-8fcf-33ff1d8ae88" nominalV="132" lowVoltageLimit="124" highVoltageLimit="145" topologyKind="BUS_BREAKER">
      <property name="rdfId" value="_0fe95ab7-b2c3-4ad4-8fcf-33ff1d8ae886"/>
      <busBreakerTopology>
        <bus id="132_0fe95ab7-b2c3-4ad4-8fcf-33ff1d8ae881" v="138.44240393678243" angle="3.340550302806701"/>
      </busBreakerTopology>
    </voltageLevel>
    <twoWindingsTransformer id="T21_72e4e0ac-25f4-41" r="0.025625001639127731" x="0.62372416257858276" g="7.5290001404937357e-05" b="-2.8939995900145732e-05" ratedU1="132" ratedU2="11" voltageLevelId1="132_0fe95ab7-b2c3-4ad4-8fcf-33ff1d8ae88" bus1="132_0fe95ab7-b2c3-4ad4-8fcf-33ff1d8ae881" connectableBus1="132_0fe95ab7-b2c3-4ad4-8fcf-33ff1d8ae881" voltageLevelId2="10_52258c72-94e5-4acc-a1d1-0ef551bc8f51" bus2="10_52258c72-94e5-4acc-a1d1-0ef551bc8f511" connectableBus2="10_52258c72-94e5-4acc-a1d1-0ef551bc8f511" p1="2.387954530542205" q1="0.62600858561367467" p2="-2.376770313368183" q2="-0.59384459034264769">
      <property name="rdfId" value="_72e4e0ac-25f4-41d3-863e-c8f182a22125"/>
      <ratioTapChanger lowTapPosition="0" tapPosition="7" loadTapChangingCapabilities="true" regulating="false">
        <terminalRef id="T21_72e4e0ac-25f4-41" side="TWO"/>
        <step r="0" x="0" g="0" b="0" rho="0.87719297409057617"/>
        <step r="0" x="0" g="0" b="0" rho="0.8928571343421936"/>
        <step r="0" x="0" g="0" b="0" rho="0.90909093618392944"/>
        <step r="0" x="0" g="0" b="0" rho="0.92592591047286987"/>
        <step r="0" x="0" g="0" b="0" rho="0.94339621067047119"/>
        <step r="0" x="0" g="0" b="0" rho="0.96153843402862549"/>
        <step r="0" x="0" g="0" b="0" rho="0.98039215803146362"/>
        <step r="0" x="0" g="0" b="0" rho="1"/>
        <step r="0" x="0" g="0" b="0" rho="1.0204081535339355"/>
        <step r="0" x="0" g="0" b="0" rho="1.0416666269302368"/>
        <step r="0" x="0" g="0" b="0" rho="1.063829779624939"/>
        <step r="0" x="0" g="0" b="0" rho="1.0869565010070801"/>
        <step r="0" x="0" g="0" b="0" rho="1.1111111640930176"/>
        <step r="0" x="0" g="0" b="0" rho="1.1363636255264282"/>
        <step r="0" x="0" g="0" b="0" rho="1.1627906560897827"/>
      </ratioTapChanger>
      <currentLimits1 permanentLimit="925"/>
      <currentLimits2 permanentLimit="925">
        <temporaryLimit name="N/A" value="1156.25"/>
        <temporaryLimit name="IT15" acceptableDuration="900"/>
      </currentLimits2>
    </twoWindingsTransformer>
  </substation>
  <substation id="GRN_9" country="FR" tso="RTE">
    <property name="paysCvg" value="DANEMARK EST"/>
    <property name="regionCvg" value="DK2"/>
    <voltageLevel id="10_59852ca8-fb2f-4bb0-aaf2-4d6563846707" nominalV="10" lowVoltageLimit="8" highVoltageLimit="12" topologyKind="BUS_BREAKER">
      <property name="rdfId" value="_59852ca8-fb2f-4bb0-aaf2-4d6563846707"/>
      <busBreakerTopology>
        <bus id="10_59852ca8-fb2f-4bb0-aaf2-4d65638467071" v="11.165654638791352" angle="-6.5375905913986943"/>
      </busBreakerTopology>
      <generator id="G_PV_9fcf0678-c0d" energySource="OTHER" minP="0" maxP="0.012400000356137753" voltageRegulatorOn="false" targetP="0.0010999999940395355" targetQ="0" targetV="10.796760559082031" bus="10_59852ca8-fb2f-4bb0-aaf2-4d65638467071" connectableBus="10_59852ca8-fb2f-4bb0-aaf2-4d65638467071" p="-0.0010999999940395355" q="0">
        <property name="genreCvg" value="AUTRE"/>
        <property name="rdfId" value="_9d43570a-e1d7-4719-926a-472019fedbf2"/>
        <reactiveCapabilityCurve>
          <point p="0" minQ="0" maxQ="0"/>
          <point p="0.012400000356137753" minQ="0" maxQ="0"/>
        </reactiveCapabilityCurve>
      </generator>
      <load id="K_FORBRUG.B" loadType="UNDEFINED" p0="23.837545394897461" q0="5.8975639343261719" bus="10_59852ca8-fb2f-4bb0-aaf2-4d65638467071" connectableBus="10_59852ca8-fb2f-4bb0-aaf2-4d65638467071" p="23.837545394897461" q="5.8975639343261719">
        <property name="rdfId" value="_9f4d36b7-2c4b-43b2-9bf5-d24fda549b58"/>
      </load>
    </voltageLevel>
    <voltageLevel id="132_50b0a592-61df-4be2-aa7f-ff6010dd885" nominalV="132" lowVoltageLimit="124" highVoltageLimit="145" topologyKind="BUS_BREAKER">
      <property name="rdfId" value="_50b0a592-61df-4be2-aa7f-ff6010dd885e"/>
      <busBreakerTopology>
        <bus id="132_50b0a592-61df-4be2-aa7f-ff6010dd8851" v="136.26280202277994" angle="-3.3209706469989766"/>
      </busBreakerTopology>
    </voltageLevel>
    <twoWindingsTransformer id="T21_1089f969-017c-49" r="0.012399998493492603" x="0.59999191761016846" g="0.00010909000411629677" b="-0.00017546000890433788" ratedU1="132" ratedU2="11" voltageLevelId1="132_50b0a592-61df-4be2-aa7f-ff6010dd885" bus1="132_50b0a592-61df-4be2-aa7f-ff6010dd8851" connectableBus1="132_50b0a592-61df-4be2-aa7f-ff6010dd8851" voltageLevelId2="10_59852ca8-fb2f-4bb0-aaf2-4d6563846707" bus2="10_59852ca8-fb2f-4bb0-aaf2-4d65638467071" connectableBus2="10_59852ca8-fb2f-4bb0-aaf2-4d65638467071" p1="11.947246523008985" q1="3.6968277325799397" p2="-11.918187705108314" q2="-2.9487646002758079">
      <property name="rdfId" value="_1089f969-017c-4975-b316-5691f1377d0e"/>
      <ratioTapChanger lowTapPosition="0" tapPosition="9" loadTapChangingCapabilities="true" regulating="false">
        <terminalRef id="T21_1089f969-017c-49" side="TWO"/>
        <step r="0" x="0" g="0" b="0" rho="0.8474576473236084"/>
        <step r="0" x="0" g="0" b="0" rho="0.86206895112991333"/>
        <step r="0" x="0" g="0" b="0" rho="0.87719297409057617"/>
        <step r="0" x="0" g="0" b="0" rho="0.8928571343421936"/>
        <step r="0" x="0" g="0" b="0" rho="0.90909093618392944"/>
        <step r="0" x="0" g="0" b="0" rho="0.92592591047286987"/>
        <step r="0" x="0" g="0" b="0" rho="0.94339621067047119"/>
        <step r="0" x="0" g="0" b="0" rho="0.96153843402862549"/>
        <step r="0" x="0" g="0" b="0" rho="0.98039215803146362"/>
        <step r="0" x="0" g="0" b="0" rho="1"/>
        <step r="0" x="0" g="0" b="0" rho="1.0204081535339355"/>
        <step r="0" x="0" g="0" b="0" rho="1.0416666269302368"/>
        <step r="0" x="0" g="0" b="0" rho="1.063829779624939"/>
        <step r="0" x="0" g="0" b="0" rho="1.0869565010070801"/>
        <step r="0" x="0" g="0" b="0" rho="1.1111111640930176"/>
        <step r="0" x="0" g="0" b="0" rho="1.1363636255264282"/>
        <step r="0" x="0" g="0" b="0" rho="1.1627906560897827"/>
      </ratioTapChanger>
    </twoWindingsTransformer>
    <twoWindingsTransformer id="T22_01f641f5-f01f-40" r="0.012399998493492603" x="0.59999191761016846" g="0.00010909000411629677" b="-0.00017546000890433788" ratedU1="132" ratedU2="11" voltageLevelId1="132_50b0a592-61df-4be2-aa7f-ff6010dd885" bus1="132_50b0a592-61df-4be2-aa7f-ff6010dd8851" connectableBus1="132_50b0a592-61df-4be2-aa7f-ff6010dd8851" voltageLevelId2="10_59852ca8-fb2f-4bb0-aaf2-4d6563846707" bus2="10_59852ca8-fb2f-4bb0-aaf2-4d65638467071" connectableBus2="10_59852ca8-fb2f-4bb0-aaf2-4d65638467071" p1="11.947246523008985" q1="3.6968277325799397" p2="-11.918187705108314" q2="-2.9487646002758079">
      <property name="rdfId" value="_01f641f5-f01f-4011-9dbf-c17ac9377087"/>
      <ratioTapChanger lowTapPosition="0" tapPosition="9" loadTapChangingCapabilities="true" regulating="false">
        <terminalRef id="T22_01f641f5-f01f-40" side="TWO"/>
        <step r="0" x="0" g="0" b="0" rho="0.8474576473236084"/>
...